data_I
_chemical_name_common  'Co_MOF'
_cell_length_a  8.40730
_cell_length_b 11.49100
_cell_length_c 35.10800
_cell_angle_alpha 90.00000
_cell_angle_beta  90.00000
_cell_angle_gamma 105.84200
_space_group_name_H-M_alt      'P 1'


loop_
_space_group_symop_operation_xyz
  'x, y, z' 

loop_
_atom_site_label
_atom_site_fract_x
_atom_site_fract_y
_atom_site_fract_z
_atom_site_type_symbol
Co     0.47425  0.50377 0.852186    Co
Co     0.52575  0.99623 0.352186    Co
Co     0.52575  0.49623 0.147814    Co
Co     0.47425  0.00377 0.647814    Co
H       0.2585   0.4291   0.9622     H
H       0.7415   0.0709   0.4622     H
H       0.7415   0.5709   0.0378     H
H       0.2585   0.9291   0.5378     H
H       0.3261   0.5417    0.014     H
H       0.6739   0.9583    0.514     H
H       0.6739   0.4583    0.986     H
H       0.3261   0.0417    0.486     H
H        0.471    0.592   0.0687     H
H        0.529    0.908   0.5687     H
H        0.529    0.408   0.9313     H
H        0.471    0.092   0.4313     H
H       0.1866   0.3173   0.1212     H
H       0.8134   0.1827   0.6212     H
H       0.8134   0.6827   0.8788     H
H       0.1866   0.8173   0.3788     H
H       0.0323   0.2599    0.068     H
H       0.9677   0.2401    0.568     H
H       0.9677   0.7401    0.932     H
H       0.0323   0.7599    0.432     H
H       0.8494   0.2637   0.0206     H
H       0.1506   0.2363   0.5206     H
H       0.1506   0.7363   0.9794     H
H       0.8494   0.7637   0.4794     H
H       0.8517   0.2456    0.907     H
H       0.1483   0.2544    0.407     H
H       0.1483   0.7544    0.093     H
H       0.8517   0.7456    0.593     H
H       0.5848   0.2331   0.0151     H
H       0.4152   0.2669   0.5151     H
H       0.4152   0.7669   0.9849     H
H       0.5848   0.7331   0.4849     H
H       0.3093   0.1366   0.0128     H
H       0.6907   0.3634   0.5128     H
H       0.6907   0.8634   0.9872     H
H       0.3093   0.6366   0.4872     H
H       0.3547   0.0049   0.9139     H
H       0.6453   0.4951   0.4139     H
H       0.6453   0.9951   0.0861     H
H       0.3547   0.5049   0.5861     H
H       0.6349   0.0953   0.9136     H
H       0.3651   0.4047   0.4136     H
H       0.3651   0.9047   0.0864     H
H       0.6349   0.5953   0.5864     H
H       0.5353   0.9162   0.8344     H
H       0.4647   0.5838   0.3344     H
H       0.4647   0.0838   0.1656     H
H       0.5353   0.4162   0.6656     H
H        0.869   0.2707   0.8181     H
H        0.131   0.2293   0.3181     H
H        0.131   0.7293   0.1819     H
H        0.869   0.7707   0.6819     H
H       0.7735   0.4297    0.836     H
H       0.2265   0.0703    0.336     H
H       0.2265   0.5703    0.164     H
H       0.7735   0.9297    0.664     H
H       0.3201   0.2293   0.8358     H
H       0.6799   0.2707   0.3358     H
H       0.6799   0.7707   0.1642     H
H       0.3201   0.7293   0.6642     H
H       0.4014   0.0635   0.8186     H
H       0.5986   0.4365   0.3186     H
H       0.5986   0.9365   0.1814     H
H       0.4014   0.5635   0.6814     H
H        0.892   0.1325   0.7715     H
H        0.108   0.3675   0.2715     H
H        0.108   0.8675   0.2285     H
H        0.892   0.6325   0.7285     H
H       0.8662   0.7818   0.7809     H
H       0.1338   0.7182   0.2809     H
H       0.1338   0.2182   0.2191     H
H       0.8662   0.2818   0.7191     H
H       0.9791   0.0875   0.7082     H
H       0.0209   0.4125   0.2082     H
H       0.0209   0.9125   0.2918     H
H       0.9791   0.5875   0.7918     H
H       0.1858   0.0959   0.6656     H
H       0.8142   0.4041   0.1656     H
H       0.8142   0.9041   0.3344     H
H       0.1858   0.5959   0.8344     H
H       0.3731    0.892   0.7295     H
H       0.6269    0.608   0.2295     H
H       0.6269    0.108   0.2705     H
H       0.3731    0.392   0.7705     H
H       0.1684   0.8727   0.7737     H
H       0.8316   0.6273   0.2737     H
H       0.8316   0.1273   0.2263     H
H       0.1684   0.3727   0.7263     H
C       0.1628    0.362  0.89189     C
C       0.8372    0.138  0.39189     C
C       0.8372    0.638  0.10811     C
C       0.1628    0.862  0.60811     C
C       0.0706   0.3394  0.92885     C
C       0.9294   0.1606  0.42885     C
C       0.9294   0.6606  0.07115     C
C       0.0706   0.8394  0.57115     C
C       0.1498    0.381  0.96279     C
C       0.8502    0.119  0.46279     C
C       0.8502    0.619  0.03721     C
C       0.1498    0.881  0.53721     C
C       0.0708   0.3524  0.99747     C
C       0.9292   0.1476  0.49747     C
C       0.9292   0.6476  0.00253     C
C       0.0708   0.8524  0.50253     C
C       0.1623   0.3914  0.03352     C
C       0.8377   0.1086  0.53352     C
C       0.8377   0.6086  0.96648     C
C       0.1623   0.8914  0.46648     C
C       0.2953   0.4931  0.03546     C
C       0.7047   0.0069  0.53546     C
C       0.7047   0.5069  0.96454     C
C       0.2953   0.9931  0.46454     C
C        0.382   0.5229  0.06863     C
C        0.618   0.9771  0.56863     C
C        0.618   0.4771  0.93137     C
C        0.382   0.0229  0.43137     C
C       0.2163   0.3632  0.09917     C
C       0.7837   0.1368  0.59917     C
C       0.7837   0.6368  0.90083     C
C       0.2163   0.8632  0.40083     C
C        0.123   0.3276  0.06714     C
C        0.877   0.1724  0.56714     C
C        0.877   0.6724  0.93286     C
C        0.123   0.8276  0.43286     C
C       0.9044   0.2839  0.99754     C
C       0.0956   0.2161  0.49754     C
C       0.0956   0.7161  0.00246     C
C       0.9044   0.7839  0.50246     C
C       0.8216   0.2462  0.96402     C
C       0.1784   0.2538  0.46402     C
C       0.1784   0.7538  0.03598     C
C       0.8216   0.7462  0.53598     C
C       0.9062   0.2728  0.92966     C
C       0.0938   0.2272  0.42966     C
C       0.0938   0.7272  0.07034     C
C       0.9062   0.7728  0.57034     C
C       0.6426   0.1795  0.96423     C
C       0.3574   0.3205  0.46423     C
C       0.3574   0.8205  0.03577     C
C       0.6426   0.6795  0.53577     C
C       0.5414   0.1876   0.9937     C
C       0.4586   0.3124   0.4937     C
C       0.4586   0.8124   0.0063     C
C       0.5414   0.6876   0.5063     C
C       0.3746   0.1289  0.99212     C
C       0.6254   0.3711  0.49212     C
C       0.6254   0.8711  0.00788     C
C       0.3746   0.6289  0.50788     C
C       0.4016   0.0521  0.93469     C
C       0.5984   0.4479  0.43469     C
C       0.5984   0.9479  0.06531     C
C       0.4016   0.5521  0.56531     C
C       0.5709   0.1071  0.93404     C
C       0.4291   0.3929  0.43404     C
C       0.4291   0.8929  0.06596     C
C       0.5709   0.6071  0.56596     C
C       0.6107   0.7085  0.82623     C
C       0.3893   0.7915  0.32623     C
C       0.3893   0.2915  0.17377     C
C       0.6107   0.2085  0.67377     C
C       0.6892   0.8302  0.81013     C
C       0.3108   0.6698  0.31013     C
C       0.3108   0.1698  0.18987     C
C       0.6892   0.3302  0.68987     C
C       0.6281   0.9274  0.81899     C
C       0.3719   0.5726  0.31899     C
C       0.3719   0.0726  0.18101     C
C       0.6281   0.4274  0.68101     C
C       0.7055   0.0414  0.80481     C
C       0.2945   0.4586  0.30481     C
C       0.2945   0.9586  0.19519     C
C       0.7055   0.5414  0.69519     C
C       0.6461   0.1472  0.81596     C
C       0.3539   0.3528  0.31596     C
C       0.3539   0.8528  0.18404     C
C       0.6461   0.6472  0.68404     C
C       0.7562   0.2597  0.82157     C
C       0.2438   0.2403  0.32157     C
C       0.2438   0.7403  0.17843     C
C       0.7562   0.7597  0.67843     C
C       0.6974   0.3549  0.83229     C
C       0.3026   0.1451  0.33229     C
C       0.3026   0.6451  0.16771     C
C       0.6974   0.8549  0.66771     C
C       0.4323   0.2377  0.83226     C
C       0.5677   0.2623  0.33226     C
C       0.5677   0.7623  0.16774     C
C       0.4323   0.7377  0.66774     C
C       0.4799   0.1375  0.82178     C
C       0.5201   0.3625  0.32178     C
C       0.5201   0.8625  0.17822     C
C       0.4799   0.6375  0.67822     C
C       0.8412   0.0562  0.78128     C
C       0.1588   0.4438  0.28128     C
C       0.1588   0.9438  0.21872     C
C       0.8412   0.5562  0.71872     C
C        0.903   0.9603  0.77193     C
C        0.097   0.5397  0.27193     C
C        0.097   0.0397  0.22807     C
C        0.903   0.4603  0.72807     C
C       0.8255   0.8472  0.78679     C
C       0.1745   0.6528  0.28679     C
C       0.1745   0.1528  0.21321     C
C       0.8255   0.3472  0.71321     C
C       0.0434   0.9743   0.7456     C
C       0.9566   0.5257   0.2456     C
C       0.9566   0.0257   0.2544     C
C       0.0434   0.4743   0.7544     C
C        0.056   0.0444   0.7129     C
C        0.944   0.4556   0.2129     C
C        0.944   0.9556   0.2871     C
C        0.056   0.5444   0.7871     C
C       0.1818   0.0501  0.68754     C
C       0.8182   0.4499  0.18754     C
C       0.8182   0.9499  0.31246     C
C       0.1818   0.5501  0.81246     C
C       0.2907   0.9302  0.72488     C
C       0.7093   0.5698  0.22488     C
C       0.7093   0.0698  0.27512     C
C       0.2907   0.4302  0.77512     C
C        0.168    0.918  0.75174     C
C        0.832    0.582  0.25174     C
C        0.832    0.082  0.24826     C
C        0.168    0.418  0.74826     C
N       0.3478   0.4601  0.10074     N
N       0.6522   0.0399  0.60074     N
N       0.6522   0.5399  0.89926     N
N       0.3478   0.9601  0.39926     N
N       0.3028   0.0631  0.96328     N
N       0.6972   0.4369  0.46328     N
N       0.6972   0.9369  0.03672     N
N       0.3028   0.5631  0.53672     N
N       0.5375   0.3468  0.83776     N
N       0.4625   0.1532  0.33776     N
N       0.4625   0.6532  0.16224     N
N       0.5375   0.8468  0.66224     N
N       0.2995   0.9928  0.69277     N
N       0.7005   0.5072  0.19277     N
N       0.7005   0.0072  0.30723     N
N       0.2995   0.4928  0.80723     N
O       0.2936   0.4509  0.89171     O
O       0.7064   0.0491  0.39171     O
O       0.7064   0.5491  0.10829     O
O       0.2936   0.9509  0.60829     O
O       0.1094   0.2945  0.86457     O
O       0.8906   0.2055  0.36457     O
O       0.8906   0.7055  0.13543     O
O       0.1094   0.7945  0.63543     O
O        0.497  0.69621  0.85062     O
O        0.503  0.80379  0.35062     O
O        0.503  0.30379  0.14938     O
O        0.497  0.19621  0.64938     O
O       0.6593  0.61924  0.81575     O
O       0.3407  0.88076  0.31575     O
O       0.3407  0.38076  0.18425     O
O       0.6593  0.11924  0.68425     O
