data_I
_chemical_name_common  'Zn_MOF'
_cell_length_a 21.62400
_cell_length_b 21.62400
_cell_length_c 24.53876
_cell_angle_alpha 116.14275
_cell_angle_beta  116.14275
_cell_angle_gamma 90.00000
_space_group_name_H-M_alt      'P 1'


loop_
_space_group_symop_operation_xyz
  'x, y, z'

loop_
_atom_site_label
_atom_site_fract_x
_atom_site_fract_y
_atom_site_fract_z
_atom_site_type_symbol
C      0.20563  0.01242  0.03074     C
C      0.20563  0.01242  0.03074     C
C      0.51832  0.20563  0.53074     C
C      0.51832  0.20563  0.53074     C
C      0.82511  0.51832  0.03074     C
C      0.01242  0.82511  0.53074     C
C      0.67489  0.48758  0.96926     C
C      0.29437  0.98168  0.96926     C
C      0.98168  0.67489  0.46926     C
C      0.48758  0.29437  0.46926     C
C      0.79437  0.98758  0.96926     C
C      0.48168  0.79437  0.46926     C
C      0.17489  0.48168  0.96926     C
C      0.98758  0.17489  0.46926     C
C      0.32511  0.51242  0.03074     C
C      0.70563  0.01832  0.03074     C
C      0.01832  0.32511  0.53074     C
C      0.51242  0.70563  0.53074     C
C      0.26341   0.1145  0.03924     C
C      0.42474  0.26341  0.53924     C
C      0.77583  0.42474  0.03924     C
C       0.1145  0.77583  0.53924     C
C      0.72417   0.3855  0.96076     C
C      0.23659  0.07526  0.96076     C
C      0.07526  0.72417  0.46076     C
C       0.3855  0.23659  0.46076     C
C      0.73659   0.8855  0.96076     C
C      0.57526  0.73659  0.46076     C
C      0.22417  0.57526  0.96076     C
C       0.8855  0.22417  0.46076     C
C      0.27583   0.6145  0.03924     C
C      0.76341  0.92474  0.03924     C
C      0.92474  0.27583  0.53924     C
C       0.6145  0.76341  0.53924     C
C      0.32554  0.02357  0.04838     C
C      0.52481  0.32554  0.54838     C
C      0.72284  0.52481  0.04838     C
C      0.02357  0.72284  0.54838     C
C      0.77716  0.47643  0.95162     C
C      0.17446  0.97519  0.95162     C
C      0.97519  0.77716  0.45162     C
C      0.47643  0.17446  0.45162     C
C      0.67446  0.97643  0.95162     C
C      0.47519  0.67446  0.45162     C
C      0.27716  0.47519  0.95162     C
C      0.27716  0.47519  0.95162     C
C      0.97643  0.27716  0.45162     C
C      0.22284  0.52357  0.04838     C
C      0.82554  0.02481  0.04838     C
C      0.02481  0.22284  0.54838     C
C      0.52357  0.82554  0.54838     C
C      0.35066  0.02649  0.24034     C
C      0.71385  0.35066  0.74034     C
C      0.88968  0.71385  0.24034     C
C      0.02649  0.88968  0.74034     C
C      0.61032  0.47351  0.75966     C
C      0.14934  0.78615  0.75966     C
C      0.78615  0.61032  0.25966     C
C      0.47351  0.14934  0.25966     C
C      0.64934  0.97351  0.75966     C
C      0.28615  0.64934  0.25966     C
C      0.11032  0.28615  0.75966     C
C      0.97351  0.11032  0.25966     C
C      0.38968  0.52649  0.24034     C
C      0.85066  0.21385  0.24034     C
C      0.21385  0.38968  0.74034     C
C      0.52649  0.85066  0.74034     C
C      0.36091  0.95837  0.24226     C
C      0.78389  0.36091  0.74226     C
C      0.88135  0.78389  0.24226     C
C      0.95837  0.88135  0.74226     C
C      0.61865  0.54163  0.75774     C
C      0.13909  0.71611  0.75774     C
C      0.71611  0.61865  0.25774     C
C      0.54163  0.13909  0.25774     C
C      0.63909  0.04163  0.75774     C
C      0.21611  0.63909  0.25774     C
C      0.11865  0.21611  0.75774     C
C      0.04163  0.11865  0.25774     C
C      0.38135  0.45837  0.24226     C
C      0.86091  0.28389  0.24226     C
C      0.28389  0.38135  0.74226     C
C      0.45837  0.86091  0.74226     C
C      0.41061  0.96442  0.30564     C
C      0.41061  0.96442  0.30564     C
C      0.84122  0.41061  0.80564     C
C      0.89503  0.84122  0.30564     C
C      0.96442  0.89503  0.80564     C
C      0.60497  0.53558  0.69436     C
C      0.08939  0.65878  0.69436     C
C      0.65878  0.60497  0.19436     C
C      0.53558  0.08939  0.19436     C
C      0.58939  0.03558  0.69436     C
C      0.15878  0.58939  0.19436     C
C      0.10497  0.15878  0.69436     C
C      0.03558  0.10497  0.19436     C
C      0.39503  0.46442  0.30564     C
C      0.91061  0.34122  0.30564     C
C      0.34122  0.39503  0.80564     C
C      0.46442  0.91061  0.80564     C
C      0.32422  0.89041  0.18274     C
C      0.79233  0.32422  0.68274     C
C      0.85852  0.79233  0.18274     C
C      0.89041  0.85852  0.68274     C
C      0.64148  0.60959  0.81726     C
C      0.17578  0.70767  0.81726     C
C      0.70767  0.64148  0.31726     C
C      0.60959  0.17578  0.31726     C
C      0.67578  0.10959  0.81726     C
C      0.20767  0.67578  0.31726     C
C      0.14148  0.20767  0.81726     C
C      0.10959  0.14148  0.31726     C
C      0.35852  0.39041  0.18274     C
C      0.82422  0.29233  0.18274     C
C      0.29233  0.35852  0.68274     C
C      0.39041  0.82422  0.68274     C
C      0.27041   0.8786  0.11156     C
C      0.73296  0.27041  0.61156     C
C      0.84115  0.73296  0.11156     C
C       0.8786  0.84115  0.61156     C
C      0.65885   0.6214  0.88844     C
C      0.22959  0.76704  0.88844     C
C      0.76704  0.65885  0.38844     C
C       0.6214  0.22959  0.38844     C
C      0.72959   0.1214  0.88844     C
C      0.26704  0.72959  0.38844     C
C      0.15885  0.26704  0.88844     C
C       0.1214  0.15885  0.38844     C
C      0.34115   0.3786  0.11156     C
C      0.77041  0.23296  0.11156     C
C      0.23296  0.34115  0.61156     C
C       0.3786  0.77041  0.61156     C
C      0.22999  0.14182  0.24256     C
C      0.60074  0.22999  0.74256     C
C      0.01257  0.60074  0.24256     C
C      0.14182  0.01257  0.74256     C
C      0.48743  0.35818  0.75744     C
C      0.27001  0.89926  0.75744     C
C      0.27001  0.89926  0.75744     C
C      0.89926  0.48743  0.25744     C
C      0.35818  0.27001  0.25744     C
C      0.77001  0.85818  0.75744     C
C      0.39926  0.77001  0.25744     C
C      0.98743  0.39926  0.75744     C
C      0.85818  0.98743  0.25744     C
C      0.51257  0.64182  0.24256     C
C      0.72999  0.10074  0.24256     C
C      0.10074  0.51257  0.74256     C
C      0.64182  0.72999  0.74256     C
C      0.16161  0.13371  0.24418     C
C      0.61047  0.16161  0.74418     C
C      0.08257  0.61047  0.24418     C
C      0.13371  0.08257  0.74418     C
C      0.41743  0.36629  0.75582     C
C      0.33839  0.88953  0.75582     C
C      0.88953  0.41743  0.25582     C
C      0.36629  0.33839  0.25582     C
C      0.83839  0.86629  0.75582     C
C      0.38953  0.83839  0.25582     C
C      0.91743  0.38953  0.75582     C
C      0.86629  0.91743  0.25582     C
C      0.58257  0.63371  0.24418     C
C      0.66161  0.11047  0.24418     C
C      0.11047  0.58257  0.74418     C
C      0.63371  0.66161  0.74418     C
C      0.16754  0.14769   0.3079     C
C      0.66021  0.16754   0.8079     C
C      0.14036  0.66021   0.3079     C
C      0.14769  0.14036   0.8079     C
C      0.35964  0.35231   0.6921     C
C      0.33246  0.83979   0.6921     C
C      0.83979  0.35964   0.1921     C
C      0.35231  0.33246   0.1921     C
C      0.83246  0.85231   0.6921     C
C      0.33979  0.83246   0.1921     C
C      0.85964  0.33979   0.6921     C
C      0.85231  0.85964   0.1921     C
C      0.64036  0.64769   0.3079     C
C      0.66754  0.16021   0.3079     C
C      0.66754  0.16021   0.3079     C
C      0.16021  0.64036   0.8079     C
C      0.64769  0.66754   0.8079     C
C      0.09401  0.11195   0.1853     C
C      0.57335  0.09401   0.6853     C
C      0.09129  0.57335   0.1853     C
C      0.11195  0.09129   0.6853     C
C      0.40871  0.38805   0.8147     C
C      0.40599  0.92665   0.8147     C
C      0.92665  0.40871   0.3147     C
C      0.38805  0.40599   0.3147     C
C      0.90599  0.88805   0.8147     C
C      0.42665  0.90599   0.3147     C
C      0.90871  0.42665   0.8147     C
C      0.88805  0.90871   0.3147     C
C      0.59129  0.61195   0.1853     C
C      0.59401  0.07335   0.1853     C
C      0.07335  0.59129   0.6853     C
C      0.61195  0.59401   0.6853     C
C      0.08131  0.09661  0.11418     C
C      0.51757  0.08131  0.61418     C
C      0.03287  0.51757  0.11418     C
C      0.09661  0.03287  0.61418     C
C      0.46713  0.40339  0.88582     C
C      0.41869  0.98243  0.88582     C
C      0.98243  0.46713  0.38582     C
C      0.40339  0.41869  0.38582     C
C      0.91869  0.90339  0.88582     C
C      0.48243  0.91869  0.38582     C
C      0.96713  0.48243  0.88582     C
C      0.90339  0.96713  0.38582     C
C      0.53287  0.59661  0.11418     C
C      0.58131  0.01757  0.11418     C
C      0.01757  0.53287  0.61418     C
C      0.59661  0.58131  0.61418     C
H       0.1719   0.0378   0.0434     H
H       0.5056   0.1719   0.5434     H
H       0.8715   0.5056   0.0434     H
H       0.0378   0.8715   0.5434     H
H       0.6285   0.4622   0.9566     H
H       0.3281   0.9944   0.9566     H
H       0.9944   0.6285   0.4566     H
H       0.4622   0.3281   0.4566     H
H       0.8281   0.9622   0.9566     H
H       0.4944   0.8281   0.4566     H
H       0.1285   0.4944   0.9566     H
H       0.1285   0.4944   0.9566     H
H       0.9622   0.1285   0.4566     H
H       0.3715   0.5378   0.0434     H
H       0.6719   0.0056   0.0434     H
H       0.0056   0.3715   0.5434     H
H       0.5378   0.6719   0.5434     H
H       0.2128   0.9766   0.0464     H
H       0.5698   0.2128   0.5464     H
H       0.8336   0.5698   0.0464     H
H       0.9766   0.8336   0.5464     H
H       0.6664   0.5234   0.9536     H
H       0.2872   0.9302   0.9536     H
H       0.9302   0.6664   0.4536     H
H       0.5234   0.2872   0.4536     H
H       0.7872   0.0234   0.9536     H
H       0.4302   0.7872   0.4536     H
H       0.1664   0.4302   0.9536     H
H       0.0234   0.1664   0.4536     H
H       0.3336   0.4766   0.0464     H
H       0.7128   0.0698   0.0464     H
H       0.0698   0.3336   0.5464     H
H       0.4766   0.7128   0.5464     H
H       0.3085     0.15   0.0634     H
H       0.4134   0.3085   0.5634     H
H       0.7549   0.4134   0.0634     H
H         0.15   0.7549   0.5634     H
H       0.7451     0.35   0.9366     H
H       0.1915   0.0866   0.9366     H
H       0.0866   0.7451   0.4366     H
H         0.35   0.1915   0.4366     H
H       0.6915     0.85   0.9366     H
H       0.5866   0.6915   0.4366     H
H       0.2451   0.5866   0.9366     H
H         0.85   0.2451   0.4366     H
H       0.2549     0.65   0.0634     H
H       0.8085   0.9134   0.0634     H
H       0.9134   0.2549   0.5634     H
H         0.65   0.8085   0.5634     H
H       0.2282     0.14   0.0486     H
H       0.4086   0.2282   0.5486     H
H       0.8204   0.4086   0.0486     H
H         0.14   0.8204   0.5486     H
H       0.6796     0.36   0.9514     H
H       0.2718   0.0914   0.9514     H
H       0.0914   0.6796   0.4514     H
H         0.36   0.2718   0.4514     H
H       0.7718     0.86   0.9514     H
H       0.5914   0.7718   0.4514     H
H       0.1796   0.5914   0.9514     H
H         0.86   0.1796   0.4514     H
H       0.3204     0.64   0.0486     H
H       0.7282   0.9086   0.0486     H
H       0.9086   0.3204   0.5486     H
H         0.64   0.7282   0.5486     H
H       0.3351   0.9905   0.0674     H
H       0.5769   0.3351   0.5674     H
H       0.7323   0.5769   0.0674     H
H       0.7323   0.5769   0.0674     H
H       0.9905   0.7323   0.5674     H
H       0.7677   0.5095   0.9326     H
H       0.1649   0.9231   0.9326     H
H       0.9231   0.7677   0.4326     H
H       0.5095   0.1649   0.4326     H
H       0.6649   0.0095   0.9326     H
H       0.4231   0.6649   0.4326     H
H       0.2677   0.4231   0.9326     H
H       0.0095   0.2677   0.4326     H
H       0.2323   0.4905   0.0674     H
H       0.8351   0.0769   0.0674     H
H       0.0769   0.2323   0.5674     H
H       0.4905   0.8351   0.5674     H
H       0.3711    0.057   0.0696     H
H       0.5126   0.3711   0.5696     H
H       0.6985   0.5126   0.0696     H
H        0.057   0.6985   0.5696     H
H       0.8015    0.443   0.9304     H
H       0.1289   0.9874   0.9304     H
H       0.9874   0.8015   0.4304     H
H        0.443   0.1289   0.4304     H
H       0.6289    0.943   0.9304     H
H       0.4874   0.6289   0.4304     H
H       0.3015   0.4874   0.9304     H
H        0.943   0.3015   0.4304     H
H       0.1985    0.557   0.0696     H
H       0.8711   0.0126   0.0696     H
H       0.0126   0.1985   0.5696     H
H        0.557   0.8711   0.5696     H
H       0.4348   0.0106   0.3446     H
H        0.834   0.4348   0.8446     H
H       0.9098    0.834   0.3446     H
H       0.0106   0.9098   0.8446     H
H       0.5902   0.4894   0.6554     H
H       0.0652    0.666   0.6554     H
H        0.666   0.5902   0.1554     H
H       0.4894   0.0652   0.1554     H
H       0.5652   0.9894   0.6554     H
H        0.166   0.5652   0.1554     H
H       0.0902    0.166   0.6554     H
H       0.9894   0.0902   0.1554     H
H       0.4098   0.5106   0.3446     H
H       0.9348    0.334   0.3446     H
H        0.334   0.4098   0.8446     H
H       0.5106   0.9348   0.8446     H
H       0.2951    0.888   0.0898     H
H       0.7018   0.2951   0.5898     H
H       0.7947   0.7018   0.0898     H
H        0.888   0.7947   0.5898     H
H       0.7053    0.612   0.9102     H
H       0.2049   0.7982   0.9102     H
H       0.7982   0.7053   0.4102     H
H        0.612   0.2049   0.4102     H
H       0.7049    0.112   0.9102     H
H       0.2982   0.7049   0.4102     H
H       0.2053   0.2982   0.9102     H
H        0.112   0.2053   0.4102     H
H       0.2947    0.388   0.0898     H
H       0.7951   0.2018   0.0898     H
H       0.2018   0.2947   0.5898     H
H        0.388   0.7951   0.5898     H
H       0.2389   0.9108   0.1164     H
H       0.7056   0.2389   0.6164     H
H       0.8775   0.7056   0.1164     H
H       0.8775   0.7056   0.1164     H
H       0.9108   0.8775   0.6164     H
H       0.6225   0.5892   0.8836     H
H       0.2611   0.7944   0.8836     H
H       0.7944   0.6225   0.3836     H
H       0.5892   0.2611   0.3836     H
H       0.7611   0.0892   0.8836     H
H       0.2944   0.7611   0.3836     H
H       0.1225   0.2944   0.8836     H
H       0.0892   0.1225   0.3836     H
H       0.3775   0.4108   0.1164     H
H       0.7389   0.2056   0.1164     H
H       0.2056   0.3775   0.6164     H
H       0.4108   0.7389   0.6164     H
H       0.2423   0.8293   0.0824     H
H       0.7531   0.2423   0.5824     H
H       0.8401   0.7531   0.0824     H
H       0.8293   0.8401   0.5824     H
H       0.6599   0.6707   0.9176     H
H       0.2577   0.7469   0.9176     H
H       0.7469   0.6599   0.4176     H
H       0.6707   0.2577   0.4176     H
H       0.7577   0.1707   0.9176     H
H       0.2469   0.7577   0.4176     H
H       0.1599   0.2469   0.9176     H
H       0.1707   0.1599   0.4176     H
H       0.3401   0.3293   0.0824     H
H       0.7423   0.2531   0.0824     H
H       0.2531   0.3401   0.5824     H
H       0.3293   0.7423   0.5824     H
H       0.2137   0.1622   0.3468     H
H       0.6846   0.2137   0.8468     H
H       0.1331   0.6846   0.3468     H
H       0.1622   0.1331   0.8468     H
H       0.3669   0.3378   0.6532     H
H       0.2863   0.8154   0.6532     H
H       0.8154   0.3669   0.1532     H
H       0.3378   0.2863   0.1532     H
H       0.7863   0.8378   0.6532     H
H       0.3154   0.7863   0.1532     H
H       0.8669   0.3154   0.6532     H
H       0.8378   0.8669   0.1532     H
H       0.6331   0.6622   0.3468     H
H       0.7137   0.1846   0.3468     H
H       0.1846   0.6331   0.8468     H
H       0.6622   0.7137   0.8468     H
H       0.0889   0.0497   0.0906     H
H       0.5409   0.0889   0.5906     H
H       0.0017   0.5409   0.0906     H
H       0.0497   0.0017   0.5906     H
H       0.4983   0.4503   0.9094     H
H       0.4111   0.9591   0.9094     H
H       0.9591   0.4983   0.4094     H
H       0.4503   0.4111   0.4094     H
H       0.9111   0.9503   0.9094     H
H       0.4591   0.9111   0.4094     H
H       0.9983   0.4591   0.9094     H
H       0.9503   0.9983   0.4094     H
H       0.5017   0.5497   0.0906     H
H       0.5889   0.0409   0.0906     H
H       0.0409   0.5017   0.5906     H
H       0.5497   0.5889   0.5906     H
H       0.1143   0.1326   0.1196     H
H        0.487   0.1143   0.6196     H
H       0.0053    0.487   0.1196     H
H       0.1326   0.0053   0.6196     H
H       0.4947   0.3674   0.8804     H
H       0.3857    0.013   0.8804     H
H        0.013   0.4947   0.3804     H
H       0.3674   0.3857   0.3804     H
H       0.8857   0.8674   0.8804     H
H        0.513   0.8857   0.3804     H
H       0.9947    0.513   0.8804     H
H       0.9947    0.513   0.8804     H
H       0.8674   0.9947   0.3804     H
H       0.5053   0.6326   0.1196     H
H       0.6143    0.987   0.1196     H
H        0.987   0.5053   0.6196     H
H       0.6326   0.6143   0.6196     H
H       0.0324   0.0976   0.0864     H
H       0.4888   0.0324   0.5864     H
H        0.054   0.4888   0.0864     H
H       0.0976    0.054   0.5864     H
H        0.446   0.4024   0.9136     H
H       0.4676   0.0112   0.9136     H
H       0.0112    0.446   0.4136     H
H       0.4024   0.4676   0.4136     H
H       0.9676   0.9024   0.9136     H
H       0.5112   0.9676   0.4136     H
H        0.946   0.5112   0.9136     H
H       0.9024    0.946   0.4136     H
H        0.554   0.5976   0.0864     H
H       0.5324   0.9888   0.0864     H
H       0.9888    0.554   0.5864     H
H       0.5976   0.5324   0.5864     H
N      0.27511  0.06414  0.06684     N
N       0.5027  0.27511  0.56684     N
N      0.79173   0.5027  0.06684     N
N      0.06414  0.79173  0.56684     N
N      0.70827  0.43586  0.93316     N
N      0.22489   0.9973  0.93316     N
N       0.9973  0.70827  0.43316     N
N      0.43586  0.22489  0.43316     N
N      0.72489  0.93586  0.93316     N
N       0.4973  0.72489  0.43316     N
N      0.20827   0.4973  0.93316     N
N      0.93586  0.20827  0.43316     N
N      0.29173  0.56414  0.06684     N
N      0.77511   0.0027  0.06684     N
N       0.0027  0.29173  0.56684     N
N      0.56414  0.77511  0.56684     N
O       0.3372   0.0267  0.18472     O
O      0.65802   0.3372  0.68472     O
O      0.84752  0.65802  0.18472     O
O       0.0267  0.84752  0.68472     O
O      0.65248   0.4733  0.81528     O
O       0.1628  0.84198  0.81528     O
O      0.84198  0.65248  0.31528     O
O       0.4733   0.1628  0.31528     O
O       0.6628   0.9733  0.81528     O
O      0.34198   0.6628  0.31528     O
O      0.15248  0.34198  0.81528     O
O       0.9733  0.15248  0.31528     O
O      0.34752   0.5267  0.18472     O
O       0.8372  0.15802  0.18472     O
O      0.15802  0.34752  0.68472     O
O       0.5267   0.8372  0.68472     O
O       0.2297  0.10331  0.18592     O
O      0.58261   0.2297  0.68592     O
O      0.95622  0.58261  0.18592     O
O      0.10331  0.95622  0.68592     O
O      0.54378  0.39669  0.81408     O
O       0.2703  0.91739  0.81408     O
O      0.91739  0.54378  0.31408     O
O      0.39669   0.2703  0.31408     O
O       0.7703  0.89669  0.81408     O
O      0.41739   0.7703  0.31408     O
O      0.04378  0.41739  0.81408     O
O      0.89669  0.04378  0.31408     O
O      0.45622  0.60331  0.18592     O
O       0.7297  0.08261  0.18592     O
O      0.08261  0.45622  0.68592     O
O      0.08261  0.45622  0.68592     O
O      0.60331   0.7297  0.68592     O
O      0.42142  0.14248  0.20484     O
O      0.56236  0.42142  0.70484     O
O      0.78342  0.56236  0.20484     O
O      0.14248  0.78342  0.70484     O
O      0.71658  0.35752  0.79516     O
O      0.07858  0.93764  0.79516     O
O      0.93764  0.71658  0.29516     O
O      0.35752  0.07858  0.29516     O
O      0.57858  0.85752  0.79516     O
O      0.43764  0.57858  0.29516     O
O      0.21658  0.43764  0.79516     O
O      0.85752  0.21658  0.29516     O
O      0.28342  0.64248  0.20484     O
O      0.92142  0.06236  0.20484     O
O      0.06236  0.28342  0.70484     O
O      0.64248  0.92142  0.70484     O
O      0.31371  0.21656  0.20032     O
O      0.48376  0.31371  0.70032     O
O      0.88661  0.48376  0.20032     O
O      0.21656  0.88661  0.70032     O
O      0.61339  0.28344  0.79968     O
O      0.18629  0.01624  0.79968     O
O      0.01624  0.61339  0.29968     O
O      0.28344  0.18629  0.29968     O
O      0.68629  0.78344  0.79968     O
O      0.51624  0.68629  0.29968     O
O      0.11339  0.51624  0.79968     O
O      0.78344  0.11339  0.29968     O
O      0.38661  0.71656  0.20032     O
O      0.81371  0.98376  0.20032     O
O      0.98376  0.38661  0.70032     O
O      0.71656  0.81371  0.70032     O
O      0.71656  0.81371  0.70032     O
Zn    0.315398 0.113632 0.173148    Zn
Zn    0.559516 0.315398 0.673148    Zn
Zn     0.85775 0.559516 0.173148    Zn
Zn    0.113632  0.85775 0.673148    Zn
Zn     0.64225 0.386368 0.826852    Zn
Zn    0.184602 0.940484 0.826852    Zn
Zn    0.940484  0.64225 0.326852    Zn
Zn    0.940484  0.64225 0.326852    Zn
Zn    0.386368 0.184602 0.326852    Zn
Zn    0.684602 0.886368 0.826852    Zn
Zn    0.440484 0.684602 0.326852    Zn
Zn     0.14225 0.440484 0.826852    Zn
Zn    0.886368  0.14225 0.326852    Zn
Zn     0.35775 0.613632 0.173148    Zn
Zn    0.815398 0.059516 0.173148    Zn
Zn    0.059516  0.35775 0.673148    Zn
Zn    0.059516  0.35775 0.673148    Zn
Zn    0.613632 0.815398 0.673148    Zn
